Version 4
SHEET 1 880 680
SYMBOL res 0 112 R0
SYMATTR InstName R1
SYMBOL res 80 112 R0
SYMATTR InstName R2
SYMBOL res 352 112 R0
SYMATTR InstName R3
